*HEADING
cubit(/Users/rdelapor/Documents/1Dmesh.inp): 07/09/2018: 14:23:43
version: 16.5
**
********************************** P A R T S **********************************
*PART, NAME=Part-Default
**
********************************** N O D E S **********************************
*NODE, NSET=ALLNODES
       1,    0.000000e+00,    0.000000e+00,    0.000000e+00
       2,    3.000000e-06,    0.000000e+00,    0.000000e+00
       3,    3.687601e-23,    0.000000e+00,    0.000000e+00
       4,    7.965218e-23,    0.000000e+00,    0.000000e+00
       5,    1.292725e-22,    0.000000e+00,    0.000000e+00
       6,    1.868322e-22,    0.000000e+00,    0.000000e+00
       7,    2.536013e-22,    0.000000e+00,    0.000000e+00
       8,    3.310535e-22,    0.000000e+00,    0.000000e+00
       9,    4.208981e-22,    0.000000e+00,    0.000000e+00
      10,    5.251178e-22,    0.000000e+00,    0.000000e+00
      11,    6.460127e-22,    0.000000e+00,    0.000000e+00
      12,    7.862507e-22,    0.000000e+00,    0.000000e+00
      13,    9.489269e-22,    0.000000e+00,    0.000000e+00
      14,    1.137631e-21,    0.000000e+00,    0.000000e+00
      15,    1.356528e-21,    0.000000e+00,    0.000000e+00
      16,    1.610449e-21,    0.000000e+00,    0.000000e+00
      17,    1.904996e-21,    0.000000e+00,    0.000000e+00
      18,    2.246672e-21,    0.000000e+00,    0.000000e+00
      19,    2.643015e-21,    0.000000e+00,    0.000000e+00
      20,    3.102774e-21,    0.000000e+00,    0.000000e+00
** ... 231 like lines cut
**
********************************** E L E M E N T S ****************************
*ELEMENT, TYPE=B21, ELSET=EB3
       1,       1,       3
       2,       3,       4
       3,       4,       5
       4,       5,       6
       5,       6,       7
       6,       7,       8
       7,       8,       9
       8,       9,      10
       9,      10,      11
      10,      11,      12
      11,      12,      13
      12,      13,      14
      13,      14,      15
      14,      15,      16
      15,      16,      17
      16,      17,      18
      17,      18,      19
      18,      19,      20
      19,      20,      21
      20,      21,      22
** ... 230 like lines cut
**
********************************** P R O P E R T I E S ************************
**
*END PART
**
**
**
********************************** E N D   P A R T S **********************************
**
**
********************************** A S S E M B L Y ************************************
**
*ASSEMBLY, NAME=ASSEMBLY1
**
*INSTANCE, NAME=Part-Default_1, PART=Part-Default
*END INSTANCE
**
*END ASSEMBLY
**
**
**
*MATERIAL, NAME = Default-Steel
*ELASTIC, TYPE=ISOTROPIC
2.068000e+05, 2.900000e-01
*DENSITY
7.000000e-06
*CONDUCTIVITY,TYPE=ISO
4.500000e-02
*SPECIFIC HEAT
5.000000e+02
**
**
************************************** H I S T O R Y *************************************
**
*PREPRINT
**
**************************************** S T E P 1 ***************************************
*STEP,INC=100,NAME=Default Set
**
*STATIC
1, 1, 1e-05, 1
**
**
**
**
*END STEP
